 .Sol file Watershed HRU:1 Subbasin:1 HRU:1 Luse:URLD Soil: EDC01LfF039 Slope: 0-9999 7/8/2019 12:00:00 AM ArcSWAT 2012.10_0.14
 Soil Name: EDC01LfF039
 Soil Hydrologic Group: D
 Maximum rooting depth(mm) : 1520.00
 Porosity fraction from which anions are excluded: 0.500
 Crack volume potential of soil: 0.500
 Texture 1                : CN-SIL-CN-L-CN-L-CN-L
 Depth                [mm]:      150.00      460.00     1270.00     1520.00
 Bulk Density Moist [g/cc]:        1.25        1.35        1.83        1.83
 Ave. AW Incl. Rock Frag  :        0.12        0.11        0.05        0.05
 Ksat. (est.)      [mm/hr]:       32.40       27.72        3.28        3.28
 Organic Carbon [weight %]:        3.77        0.58        0.29        0.29
 Clay           [weight %]:       12.00       12.00       12.00       12.00
 Silt           [weight %]:       55.90       43.00       43.00       43.00
 Sand           [weight %]:       32.10       45.00       45.00       45.00
 Rock Fragments   [vol. %]:       16.00       20.00       23.00       15.00
 Soil Albedo (Moist)      :        0.30        0.30        0.30        0.30
 Erosion K                :        0.32        0.00        0.00        0.00
 Salinity (EC, Form 5)    :        0.00        0.00        0.00        0.00
 Soil pH                  :        5.00        5.00        5.30        5.30
 Soil CACO3               :        0.00        0.00        0.00        0.00
                              
